EV_data/reactive_data/123Bus/ieee123_VLN_elem.Txt

NODE-GROUND VOLTAGES BY CIRCUIT ELEMENT

Power Delivery Elements

Bus     (node ref)  Phase    Magnitude, kV (pu)    Angle

ELEMENT = "Vsource.SOURCE"
150      (  1)    1           2.4258 (    1.01) /_    0.0
150      (  2)    2           2.4258 (    1.01) /_ -120.0
150      (  3)    3           2.4258 (    1.01) /_  120.0
------------
150      (  0)    0                0 (       0) /_    0.0
150      (  0)    0                0 (       0) /_    0.0
150      (  0)    0                0 (       0) /_    0.0

ELEMENT = "Transformer.REG1A"
150      (  1)    1           2.4258 (    1.01) /_    0.0
150      (  2)    2           2.4258 (    1.01) /_ -120.0
150      (  3)    3           2.4258 (    1.01) /_  120.0
150      (  0)    0                0 (       0) /_    0.0
------------
150R     (  4)    1           2.4258 (    1.01) /_    0.0
150R     (  5)    2           2.4258 (    1.01) /_ -120.0
150R     (  6)    3           2.4258 (    1.01) /_  120.0
150R     (  0)    0                0 (       0) /_    0.0

ELEMENT = "Line.L115"
149      (  7)    1           2.4258 (    1.01) /_    0.0
149      (  8)    2           2.4258 (    1.01) /_ -120.0
149      (  9)    3           2.4258 (    1.01) /_  120.0
------------
1        ( 10)    1           2.3935 (  0.9965) /_   -0.7
1        ( 11)    2           2.4217 (   1.008) /_ -120.3
1        ( 12)    3            2.403 (       1) /_  119.6

ELEMENT = "Line.L1"
1        ( 11)    2           2.4217 (   1.008) /_ -120.3
------------
2        ( 13)    2           2.4212 (   1.008) /_ -120.3

ELEMENT = "Line.L2"
1        ( 12)    3            2.403 (       1) /_  119.6
------------
3        ( 14)    3            2.399 (  0.9988) /_  119.6

ELEMENT = "Line.L3"
1        ( 10)    1           2.3935 (  0.9965) /_   -0.7
1        ( 11)    2           2.4217 (   1.008) /_ -120.3
1        ( 12)    3            2.403 (       1) /_  119.6
------------
7        ( 15)    1           2.3694 (  0.9865) /_   -1.2
7        ( 16)    2           2.4189 (   1.007) /_ -120.6
7        ( 17)    3           2.3881 (  0.9943) /_  119.4

ELEMENT = "Line.L4"
3        ( 14)    3            2.399 (  0.9988) /_  119.6
------------
4        ( 18)    3           2.3977 (  0.9983) /_  119.6

ELEMENT = "Line.L5"
3        ( 14)    3            2.399 (  0.9988) /_  119.6
------------
5        ( 19)    3           2.3959 (  0.9976) /_  119.6

ELEMENT = "Line.L6"
5        ( 19)    3           2.3959 (  0.9976) /_  119.6
------------
6        ( 20)    3           2.3944 (  0.9969) /_  119.6

ELEMENT = "Line.L7"
7        ( 15)    1           2.3694 (  0.9865) /_   -1.2
7        ( 16)    2           2.4189 (   1.007) /_ -120.6
7        ( 17)    3           2.3881 (  0.9943) /_  119.4
------------
8        ( 21)    1           2.3538 (    0.98) /_   -1.5
8        ( 22)    2           2.4169 (   1.006) /_ -120.8
8        ( 23)    3           2.3783 (  0.9902) /_  119.2

ELEMENT = "Line.L8"
8        ( 22)    2           2.4169 (   1.006) /_ -120.8
------------
12       ( 24)    2           2.4162 (   1.006) /_ -120.8

ELEMENT = "Line.L9"
8        ( 21)    1           2.3538 (    0.98) /_   -1.5
------------
9        ( 25)    1           2.3502 (  0.9785) /_   -1.5

ELEMENT = "Line.L10"
8        ( 21)    1           2.3538 (    0.98) /_   -1.5
8        ( 22)    2           2.4169 (   1.006) /_ -120.8
8        ( 23)    3           2.3783 (  0.9902) /_  119.2
------------
13       ( 26)    1           2.3329 (  0.9713) /_   -1.9
13       ( 27)    2            2.413 (   1.005) /_ -121.0
13       ( 28)    3           2.3635 (  0.9841) /_  119.0

ELEMENT = "Line.L11"
9R       ( 29)    1           2.3485 (  0.9778) /_   -1.6
------------
14       ( 30)    1           2.3445 (  0.9761) /_   -1.6

ELEMENT = "Line.L12"
13       ( 28)    3           2.3635 (  0.9841) /_  119.0
------------
34       ( 31)    3           2.3611 (  0.9831) /_  118.9

ELEMENT = "Line.L13"
13       ( 26)    1           2.3329 (  0.9713) /_   -1.9
13       ( 27)    2            2.413 (   1.005) /_ -121.0
13       ( 28)    3           2.3635 (  0.9841) /_  119.0
------------
18       ( 32)    1           2.3092 (  0.9615) /_   -2.4
18       ( 33)    2           2.4056 (   1.002) /_ -121.3
18       ( 34)    3           2.3452 (  0.9764) /_  118.9

ELEMENT = "Line.L14"
14       ( 30)    1           2.3445 (  0.9761) /_   -1.6
------------
11       ( 35)    1           2.3429 (  0.9755) /_   -1.6

ELEMENT = "Line.L15"
14       ( 30)    1           2.3445 (  0.9761) /_   -1.6
------------
10       ( 36)    1           2.3437 (  0.9758) /_   -1.6

ELEMENT = "Line.L16"
15       ( 37)    3           2.3602 (  0.9827) /_  118.9
------------
16       ( 38)    3           2.3578 (  0.9817) /_  118.9

ELEMENT = "Line.L17"
15       ( 37)    3           2.3602 (  0.9827) /_  118.9
------------
17       ( 39)    3            2.359 (  0.9822) /_  118.9

ELEMENT = "Line.L18"
18       ( 32)    1           2.3092 (  0.9615) /_   -2.4
------------
19       ( 40)    1            2.306 (  0.9601) /_   -2.4

ELEMENT = "Line.L19"
18       ( 32)    1           2.3092 (  0.9615) /_   -2.4
18       ( 33)    2           2.4056 (   1.002) /_ -121.3
18       ( 34)    3           2.3452 (  0.9764) /_  118.9
------------
21       ( 41)    1            2.308 (   0.961) /_   -2.4
21       ( 42)    2           2.4057 (   1.002) /_ -121.3
21       ( 43)    3           2.3423 (  0.9752) /_  118.9

ELEMENT = "Line.L20"
19       ( 40)    1            2.306 (  0.9601) /_   -2.4
------------
20       ( 44)    1           2.3039 (  0.9593) /_   -2.4

ELEMENT = "Line.L21"
21       ( 42)    2           2.4057 (   1.002) /_ -121.3
------------
22       ( 45)    2           2.4024 (       1) /_ -121.3

ELEMENT = "Line.L22"
21       ( 41)    1            2.308 (   0.961) /_   -2.4
21       ( 42)    2           2.4057 (   1.002) /_ -121.3
21       ( 43)    3           2.3423 (  0.9752) /_  118.9
------------
23       ( 46)    1           2.3071 (  0.9606) /_   -2.5
23       ( 47)    2           2.4066 (   1.002) /_ -121.3
23       ( 48)    3           2.3395 (  0.9741) /_  118.9

ELEMENT = "Line.L23"
23       ( 48)    3           2.3395 (  0.9741) /_  118.9
------------
24       ( 49)    3           2.3359 (  0.9726) /_  118.9

ELEMENT = "Line.L24"
23       ( 46)    1           2.3071 (  0.9606) /_   -2.5
23       ( 47)    2           2.4066 (   1.002) /_ -121.3
23       ( 48)    3           2.3395 (  0.9741) /_  118.9
------------
25       ( 50)    1           2.3056 (  0.9599) /_   -2.6
25       ( 51)    2           2.4077 (   1.002) /_ -121.2
25       ( 52)    3           2.3373 (  0.9732) /_  118.9

ELEMENT = "Line.L25"
25R      ( 53)    1           2.3043 (  0.9594) /_   -2.6
25R      ( 54)    3           2.3361 (  0.9727) /_  118.8
------------
26       ( 55)    1           2.3037 (  0.9592) /_   -2.6
26       ( 56)    3           2.3349 (  0.9721) /_  118.8

ELEMENT = "Line.L26"
25       ( 50)    1           2.3056 (  0.9599) /_   -2.6
25       ( 51)    2           2.4077 (   1.002) /_ -121.2
25       ( 52)    3           2.3373 (  0.9732) /_  118.9
------------
28       ( 57)    1           2.3047 (  0.9596) /_   -2.6
28       ( 58)    2           2.4082 (   1.003) /_ -121.2
28       ( 59)    3           2.3365 (  0.9728) /_  118.9

ELEMENT = "Line.L27"
26       ( 55)    1           2.3037 (  0.9592) /_   -2.6
26       ( 56)    3           2.3349 (  0.9721) /_  118.8
------------
27       ( 60)    1           2.3029 (  0.9588) /_   -2.7
27       ( 61)    3           2.3348 (  0.9721) /_  118.8

ELEMENT = "Line.L28"
26       ( 56)    3           2.3349 (  0.9721) /_  118.8
------------
31       ( 62)    3           2.3334 (  0.9715) /_  118.8

ELEMENT = "Line.L29"
27       ( 60)    1           2.3029 (  0.9588) /_   -2.7
------------
33       ( 63)    1           2.2997 (  0.9575) /_   -2.7

ELEMENT = "Line.L30"
28       ( 57)    1           2.3047 (  0.9596) /_   -2.6
28       ( 58)    2           2.4082 (   1.003) /_ -121.2
28       ( 59)    3           2.3365 (  0.9728) /_  118.9
------------
29       ( 64)    1           2.3044 (  0.9594) /_   -2.6
29       ( 65)    2           2.4085 (   1.003) /_ -121.2
29       ( 66)    3           2.3354 (  0.9724) /_  118.9

ELEMENT = "Line.L31"
29       ( 64)    1           2.3044 (  0.9594) /_   -2.6
29       ( 65)    2           2.4085 (   1.003) /_ -121.2
29       ( 66)    3           2.3354 (  0.9724) /_  118.9
------------
30       ( 67)    1            2.305 (  0.9597) /_   -2.6
30       ( 68)    2           2.4084 (   1.003) /_ -121.2
30       ( 69)    3           2.3343 (  0.9719) /_  118.9

ELEMENT = "Line.L32"
30       ( 67)    1            2.305 (  0.9597) /_   -2.6
30       ( 68)    2           2.4084 (   1.003) /_ -121.2
30       ( 69)    3           2.3343 (  0.9719) /_  118.9
------------
250      ( 70)    1            2.305 (  0.9597) /_   -2.6
250      ( 71)    2           2.4084 (   1.003) /_ -121.2
250      ( 72)    3           2.3343 (  0.9719) /_  118.9

ELEMENT = "Line.L33"
31       ( 62)    3           2.3334 (  0.9715) /_  118.8
------------
32       ( 73)    3           2.3324 (  0.9711) /_  118.8

ELEMENT = "Line.L34"
34       ( 31)    3           2.3611 (  0.9831) /_  118.9
------------
15       ( 37)    3           2.3602 (  0.9827) /_  118.9

ELEMENT = "Line.L35"
35       ( 74)    1           2.3016 (  0.9583) /_   -2.5
35       ( 75)    2           2.4006 (  0.9995) /_ -121.4
------------
36       ( 76)    1           2.2994 (  0.9574) /_   -2.5
36       ( 77)    2           2.3994 (   0.999) /_ -121.4

ELEMENT = "Line.L36"
35       ( 74)    1           2.3016 (  0.9583) /_   -2.5
35       ( 75)    2           2.4006 (  0.9995) /_ -121.4
35       ( 78)    3           2.3424 (  0.9753) /_  118.9
------------
40       ( 79)    1           2.2979 (  0.9567) /_   -2.5
40       ( 80)    2           2.3979 (  0.9984) /_ -121.4
40       ( 81)    3           2.3399 (  0.9742) /_  118.8

ELEMENT = "Line.L37"
36       ( 76)    1           2.2994 (  0.9574) /_   -2.5
------------
37       ( 82)    1           2.2976 (  0.9566) /_   -2.5

ELEMENT = "Line.L38"
36       ( 77)    2           2.3994 (   0.999) /_ -121.4
------------
38       ( 83)    2           2.3978 (  0.9984) /_ -121.4

ELEMENT = "Line.L39"
38       ( 83)    2           2.3978 (  0.9984) /_ -121.4
------------
39       ( 84)    2           2.3968 (  0.9979) /_ -121.4

ELEMENT = "Line.L40"
40       ( 81)    3           2.3399 (  0.9742) /_  118.8
------------
41       ( 85)    3           2.3389 (  0.9738) /_  118.8

ELEMENT = "Line.L41"
40       ( 79)    1           2.2979 (  0.9567) /_   -2.5
40       ( 80)    2           2.3979 (  0.9984) /_ -121.4
40       ( 81)    3           2.3399 (  0.9742) /_  118.8
------------
42       ( 86)    1           2.2941 (  0.9552) /_   -2.6
42       ( 87)    2           2.3952 (  0.9973) /_ -121.5
42       ( 88)    3           2.3378 (  0.9734) /_  118.8

ELEMENT = "Line.L42"
42       ( 87)    2           2.3952 (  0.9973) /_ -121.5
------------
43       ( 89)    2            2.392 (  0.9959) /_ -121.5

ELEMENT = "Line.L43"
42       ( 86)    1           2.2941 (  0.9552) /_   -2.6
42       ( 87)    2           2.3952 (  0.9973) /_ -121.5
42       ( 88)    3           2.3378 (  0.9734) /_  118.8
------------
44       ( 90)    1           2.2914 (  0.9541) /_   -2.6
44       ( 91)    2           2.3935 (  0.9965) /_ -121.5
44       ( 92)    3           2.3358 (  0.9725) /_  118.8

ELEMENT = "Line.L44"
44       ( 90)    1           2.2914 (  0.9541) /_   -2.6
------------
45       ( 93)    1           2.2901 (  0.9535) /_   -2.6

ELEMENT = "Line.L45"
44       ( 90)    1           2.2914 (  0.9541) /_   -2.6
44       ( 91)    2           2.3935 (  0.9965) /_ -121.5
44       ( 92)    3           2.3358 (  0.9725) /_  118.8
------------
47       ( 94)    1            2.289 (   0.953) /_   -2.6
47       ( 95)    2           2.3909 (  0.9955) /_ -121.5
47       ( 96)    3           2.3334 (  0.9715) /_  118.7

ELEMENT = "Line.L46"
45       ( 93)    1           2.2901 (  0.9535) /_   -2.6
------------
46       ( 97)    1           2.2891 (  0.9531) /_   -2.6

ELEMENT = "Line.L47"
47       ( 94)    1            2.289 (   0.953) /_   -2.6
47       ( 95)    2           2.3909 (  0.9955) /_ -121.5
47       ( 96)    3           2.3334 (  0.9715) /_  118.7
------------
48       ( 98)    1           2.2883 (  0.9528) /_   -2.6
48       ( 99)    2           2.3902 (  0.9952) /_ -121.5
48       (100)    3           2.3329 (  0.9713) /_  118.7

ELEMENT = "Line.L48"
47       ( 94)    1            2.289 (   0.953) /_   -2.6
47       ( 95)    2           2.3909 (  0.9955) /_ -121.5
47       ( 96)    3           2.3334 (  0.9715) /_  118.7
------------
49       (101)    1           2.2883 (  0.9527) /_   -2.6
49       (102)    2           2.3895 (  0.9949) /_ -121.5
49       (103)    3           2.3326 (  0.9712) /_  118.7

ELEMENT = "Line.L49"
49       (101)    1           2.2883 (  0.9527) /_   -2.6
49       (102)    2           2.3895 (  0.9949) /_ -121.5
49       (103)    3           2.3326 (  0.9712) /_  118.7
------------
50       (104)    1           2.2882 (  0.9527) /_   -2.6
50       (105)    2           2.3896 (  0.9949) /_ -121.5
50       (106)    3           2.3318 (  0.9709) /_  118.7

ELEMENT = "Line.L50"
50       (104)    1           2.2882 (  0.9527) /_   -2.6
50       (105)    2           2.3896 (  0.9949) /_ -121.5
50       (106)    3           2.3318 (  0.9709) /_  118.7
------------
51       (107)    1           2.2878 (  0.9525) /_   -2.7
51       (108)    2           2.3898 (   0.995) /_ -121.5
51       (109)    3           2.3317 (  0.9708) /_  118.7

ELEMENT = "Line.L51"
51       (107)    1           2.2878 (  0.9525) /_   -2.7
51       (108)    2           2.3898 (   0.995) /_ -121.5
51       (109)    3           2.3317 (  0.9708) /_  118.7
------------
151      (110)    1           2.2878 (  0.9525) /_   -2.7
151      (111)    2           2.3898 (   0.995) /_ -121.5
151      (112)    3           2.3317 (  0.9708) /_  118.7

ELEMENT = "Line.L52"
52       (113)    1           2.3174 (  0.9648) /_   -2.3
52       (114)    2           2.4106 (   1.004) /_ -121.3
52       (115)    3           2.3545 (  0.9803) /_  118.7
------------
53       (116)    1           2.3102 (  0.9619) /_   -2.5
53       (117)    2           2.4091 (   1.003) /_ -121.4
53       (118)    3           2.3501 (  0.9785) /_  118.6

ELEMENT = "Line.L53"
53       (116)    1           2.3102 (  0.9619) /_   -2.5
53       (117)    2           2.4091 (   1.003) /_ -121.4
53       (118)    3           2.3501 (  0.9785) /_  118.6
------------
54       (119)    1           2.3062 (  0.9602) /_   -2.6
54       (120)    2           2.4079 (   1.003) /_ -121.5
54       (121)    3           2.3473 (  0.9773) /_  118.5

ELEMENT = "Line.L54"
54       (119)    1           2.3062 (  0.9602) /_   -2.6
54       (120)    2           2.4079 (   1.003) /_ -121.5
54       (121)    3           2.3473 (  0.9773) /_  118.5
------------
55       (122)    1           2.3057 (    0.96) /_   -2.6
55       (123)    2           2.4077 (   1.002) /_ -121.5
55       (124)    3           2.3475 (  0.9774) /_  118.5

ELEMENT = "Line.L55"
54       (119)    1           2.3062 (  0.9602) /_   -2.6
54       (120)    2           2.4079 (   1.003) /_ -121.5
54       (121)    3           2.3473 (  0.9773) /_  118.5
------------
57       (125)    1           2.2978 (  0.9567) /_   -2.9
57       (126)    2           2.4016 (  0.9999) /_ -121.7
57       (127)    3           2.3401 (  0.9743) /_  118.3

ELEMENT = "Line.L56"
55       (122)    1           2.3057 (    0.96) /_   -2.6
55       (123)    2           2.4077 (   1.002) /_ -121.5
55       (124)    3           2.3475 (  0.9774) /_  118.5
------------
56       (128)    1           2.3057 (    0.96) /_   -2.6
56       (129)    2           2.4072 (   1.002) /_ -121.5
56       (130)    3           2.3477 (  0.9775) /_  118.5

ELEMENT = "Line.L57"
57       (126)    2           2.4016 (  0.9999) /_ -121.7
------------
58       (131)    2              2.4 (  0.9993) /_ -121.7

ELEMENT = "Line.L58"
57       (125)    1           2.2978 (  0.9567) /_   -2.9
57       (126)    2           2.4016 (  0.9999) /_ -121.7
57       (127)    3           2.3401 (  0.9743) /_  118.3
------------
60       (132)    1           2.2801 (  0.9493) /_   -3.6
60       (133)    2           2.3907 (  0.9954) /_ -122.1
60       (134)    3           2.3233 (  0.9673) /_  117.9

ELEMENT = "Line.L59"
58       (131)    2              2.4 (  0.9993) /_ -121.7
------------
59       (135)    2           2.3992 (  0.9989) /_ -121.7

ELEMENT = "Line.L60"
60       (132)    1           2.2801 (  0.9493) /_   -3.6
60       (133)    2           2.3907 (  0.9954) /_ -122.1
60       (134)    3           2.3233 (  0.9673) /_  117.9
------------
61       (136)    1           2.2801 (  0.9493) /_   -3.6
61       (137)    2           2.3907 (  0.9954) /_ -122.1
61       (138)    3           2.3233 (  0.9673) /_  117.9

ELEMENT = "Line.L61"
60       (132)    1           2.2801 (  0.9493) /_   -3.6
60       (133)    2           2.3907 (  0.9954) /_ -122.1
60       (134)    3           2.3233 (  0.9673) /_  117.9
------------
62       (139)    1           2.2789 (  0.9488) /_   -3.6
62       (140)    2           2.3882 (  0.9944) /_ -122.1
62       (141)    3           2.3176 (  0.9649) /_  117.9

ELEMENT = "Line.L62"
62       (139)    1           2.2789 (  0.9488) /_   -3.6
62       (140)    2           2.3882 (  0.9944) /_ -122.1
62       (141)    3           2.3176 (  0.9649) /_  117.9
------------
63       (142)    1           2.2778 (  0.9484) /_   -3.6
63       (143)    2           2.3864 (  0.9936) /_ -122.0
63       (144)    3           2.3145 (  0.9637) /_  117.9

ELEMENT = "Line.L63"
63       (142)    1           2.2778 (  0.9484) /_   -3.6
63       (143)    2           2.3864 (  0.9936) /_ -122.0
63       (144)    3           2.3145 (  0.9637) /_  117.9
------------
64       (145)    1            2.278 (  0.9485) /_   -3.6
64       (146)    2           2.3822 (  0.9919) /_ -122.0
64       (147)    3           2.3081 (   0.961) /_  117.8

ELEMENT = "Line.L64"
64       (145)    1            2.278 (  0.9485) /_   -3.6
64       (146)    2           2.3822 (  0.9919) /_ -122.0
64       (147)    3           2.3081 (   0.961) /_  117.8
------------
65       (148)    1           2.2775 (  0.9482) /_   -3.6
65       (149)    2           2.3819 (  0.9917) /_ -121.9
65       (150)    3           2.2994 (  0.9574) /_  117.9

ELEMENT = "Line.L65"
65       (148)    1           2.2775 (  0.9482) /_   -3.6
65       (149)    2           2.3819 (  0.9917) /_ -121.9
65       (150)    3           2.2994 (  0.9574) /_  117.9
------------
66       (151)    1           2.2781 (  0.9485) /_   -3.7
66       (152)    2           2.3825 (   0.992) /_ -121.9
66       (153)    3           2.2956 (  0.9558) /_  117.9

ELEMENT = "Line.L66"
67       (154)    1           2.2684 (  0.9445) /_   -4.7
------------
68       (155)    1           2.2645 (  0.9428) /_   -4.8

ELEMENT = "Line.L67"
67       (154)    1           2.2684 (  0.9445) /_   -4.7
67       (156)    2           2.3906 (  0.9953) /_ -122.9
67       (157)    3           2.3173 (  0.9648) /_  117.1
------------
72       (158)    1           2.2681 (  0.9443) /_   -4.8
72       (159)    2            2.389 (  0.9947) /_ -123.0
72       (160)    3           2.3164 (  0.9645) /_  117.0

ELEMENT = "Line.L68"
67       (154)    1           2.2684 (  0.9445) /_   -4.7
67       (156)    2           2.3906 (  0.9953) /_ -122.9
67       (157)    3           2.3173 (  0.9648) /_  117.1
------------
97       (161)    1            2.266 (  0.9434) /_   -4.8
97       (162)    2           2.3893 (  0.9948) /_ -122.9
97       (163)    3           2.3155 (  0.9641) /_  117.1

ELEMENT = "Line.L69"
68       (155)    1           2.2645 (  0.9428) /_   -4.8
------------
69       (164)    1           2.2599 (  0.9409) /_   -4.8

ELEMENT = "Line.L70"
69       (164)    1           2.2599 (  0.9409) /_   -4.8
------------
70       (165)    1           2.2567 (  0.9396) /_   -4.8

ELEMENT = "Line.L71"
70       (165)    1           2.2567 (  0.9396) /_   -4.8
------------
71       (166)    1           2.2549 (  0.9389) /_   -4.8

ELEMENT = "Line.L72"
72       (160)    3           2.3164 (  0.9645) /_  117.0
------------
73       (167)    3           2.3111 (  0.9623) /_  116.9

ELEMENT = "Line.L73"
72       (158)    1           2.2681 (  0.9443) /_   -4.8
72       (159)    2            2.389 (  0.9947) /_ -123.0
72       (160)    3           2.3164 (  0.9645) /_  117.0
------------
76       (168)    1           2.2669 (  0.9438) /_   -4.9
76       (169)    2           2.3882 (  0.9944) /_ -123.1
76       (170)    3           2.3177 (   0.965) /_  116.9

ELEMENT = "Line.L74"
73       (167)    3           2.3111 (  0.9623) /_  116.9
------------
74       (171)    3           2.3067 (  0.9604) /_  116.9

ELEMENT = "Line.L75"
74       (171)    3           2.3067 (  0.9604) /_  116.9
------------
75       (172)    3           2.3041 (  0.9593) /_  116.9

ELEMENT = "Line.L76"
76       (168)    1           2.2669 (  0.9438) /_   -4.9
76       (169)    2           2.3882 (  0.9944) /_ -123.1
76       (170)    3           2.3177 (   0.965) /_  116.9
------------
77       (173)    1           2.2693 (  0.9448) /_   -5.0
77       (174)    2           2.3908 (  0.9954) /_ -123.2
77       (175)    3           2.3195 (  0.9658) /_  116.8

ELEMENT = "Line.L77"
76       (168)    1           2.2669 (  0.9438) /_   -4.9
76       (169)    2           2.3882 (  0.9944) /_ -123.1
76       (170)    3           2.3177 (   0.965) /_  116.9
------------
86       (176)    1           2.2643 (  0.9427) /_   -4.9
86       (177)    2           2.3839 (  0.9925) /_ -123.3
86       (178)    3            2.321 (  0.9664) /_  116.9

ELEMENT = "Line.L78"
77       (173)    1           2.2693 (  0.9448) /_   -5.0
77       (174)    2           2.3908 (  0.9954) /_ -123.2
77       (175)    3           2.3195 (  0.9658) /_  116.8
------------
78       (179)    1           2.2699 (  0.9451) /_   -5.0
78       (180)    2           2.3918 (  0.9958) /_ -123.2
78       (181)    3           2.3198 (  0.9659) /_  116.8

ELEMENT = "Line.L79"
78       (179)    1           2.2699 (  0.9451) /_   -5.0
78       (180)    2           2.3918 (  0.9958) /_ -123.2
78       (181)    3           2.3198 (  0.9659) /_  116.8
------------
79       (182)    1           2.2692 (  0.9448) /_   -5.0
79       (183)    2           2.3921 (   0.996) /_ -123.2
79       (184)    3           2.3197 (  0.9658) /_  116.8

ELEMENT = "Line.L80"
78       (179)    1           2.2699 (  0.9451) /_   -5.0
78       (180)    2           2.3918 (  0.9958) /_ -123.2
78       (181)    3           2.3198 (  0.9659) /_  116.8
------------
80       (185)    1           2.2743 (  0.9469) /_   -5.0
80       (186)    2           2.3957 (  0.9975) /_ -123.3
80       (187)    3           2.3214 (  0.9666) /_  116.7

ELEMENT = "Line.L81"
80       (185)    1           2.2743 (  0.9469) /_   -5.0
80       (186)    2           2.3957 (  0.9975) /_ -123.3
80       (187)    3           2.3214 (  0.9666) /_  116.7
------------
81       (188)    1           2.2759 (  0.9476) /_   -5.1
81       (189)    2           2.3978 (  0.9983) /_ -123.3
81       (190)    3           2.3218 (  0.9667) /_  116.7

ELEMENT = "Line.L82"
81       (188)    1           2.2759 (  0.9476) /_   -5.1
81       (189)    2           2.3978 (  0.9983) /_ -123.3
81       (190)    3           2.3218 (  0.9667) /_  116.7
------------
82       (191)    1           2.2776 (  0.9483) /_   -5.1
82       (192)    2           2.4008 (  0.9996) /_ -123.3
82       (193)    3           2.3235 (  0.9674) /_  116.6

ELEMENT = "Line.L83"
81       (190)    3           2.3218 (  0.9667) /_  116.7
------------
84       (194)    3           2.3151 (  0.9639) /_  116.6

ELEMENT = "Line.L84"
82       (191)    1           2.2776 (  0.9483) /_   -5.1
82       (192)    2           2.4008 (  0.9996) /_ -123.3
82       (193)    3           2.3235 (  0.9674) /_  116.6
------------
83       (195)    1           2.2801 (  0.9494) /_   -5.1
83       (196)    2           2.4034 (   1.001) /_ -123.3
83       (197)    3           2.3253 (  0.9682) /_  116.6

ELEMENT = "Line.L85"
84       (194)    3           2.3151 (  0.9639) /_  116.6
------------
85       (198)    3            2.312 (  0.9626) /_  116.6

ELEMENT = "Line.L86"
86       (176)    1           2.2643 (  0.9427) /_   -4.9
86       (177)    2           2.3839 (  0.9925) /_ -123.3
86       (178)    3            2.321 (  0.9664) /_  116.9
------------
87       (199)    1           2.2627 (  0.9421) /_   -5.0
87       (200)    2           2.3819 (  0.9917) /_ -123.4
87       (201)    3           2.3222 (  0.9669) /_  116.9

ELEMENT = "Line.L87"
87       (199)    1           2.2627 (  0.9421) /_   -5.0
------------
88       (202)    1           2.2624 (   0.942) /_   -5.0

ELEMENT = "Line.L88"
87       (199)    1           2.2627 (  0.9421) /_   -5.0
87       (200)    2           2.3819 (  0.9917) /_ -123.4
87       (201)    3           2.3222 (  0.9669) /_  116.9
------------
89       (203)    1           2.2617 (  0.9417) /_   -5.0
89       (204)    2           2.3813 (  0.9915) /_ -123.4
89       (205)    3            2.323 (  0.9672) /_  116.9

ELEMENT = "Line.L89"
89       (204)    2           2.3813 (  0.9915) /_ -123.4
------------
90       (206)    2            2.381 (  0.9913) /_ -123.5

ELEMENT = "Line.L90"
89       (203)    1           2.2617 (  0.9417) /_   -5.0
89       (204)    2           2.3813 (  0.9915) /_ -123.4
89       (205)    3            2.323 (  0.9672) /_  116.9
------------
91       (207)    1           2.2612 (  0.9415) /_   -5.0
91       (208)    2           2.3805 (  0.9911) /_ -123.4
91       (209)    3           2.3234 (  0.9674) /_  116.8

ELEMENT = "Line.L91"
91       (209)    3           2.3234 (  0.9674) /_  116.8
------------
92       (210)    3            2.323 (  0.9672) /_  116.8

ELEMENT = "Line.L92"
91       (207)    1           2.2612 (  0.9415) /_   -5.0
91       (208)    2           2.3805 (  0.9911) /_ -123.4
91       (209)    3           2.3234 (  0.9674) /_  116.8
------------
93       (211)    1           2.2603 (  0.9411) /_   -5.0
93       (212)    2           2.3801 (   0.991) /_ -123.4
93       (213)    3           2.3237 (  0.9675) /_  116.8

ELEMENT = "Line.L93"
93       (211)    1           2.2603 (  0.9411) /_   -5.0
------------
94       (214)    1           2.2585 (  0.9404) /_   -5.0

ELEMENT = "Line.L94"
93       (211)    1           2.2603 (  0.9411) /_   -5.0
93       (212)    2           2.3801 (   0.991) /_ -123.4
93       (213)    3           2.3237 (  0.9675) /_  116.8
------------
95       (215)    1           2.2602 (  0.9411) /_   -5.0
95       (216)    2           2.3791 (  0.9906) /_ -123.5
95       (217)    3           2.3241 (  0.9677) /_  116.8

ELEMENT = "Line.L95"
95       (216)    2           2.3791 (  0.9906) /_ -123.5
------------
96       (218)    2           2.3785 (  0.9903) /_ -123.5

ELEMENT = "Line.L96"
97       (161)    1            2.266 (  0.9434) /_   -4.8
97       (162)    2           2.3893 (  0.9948) /_ -122.9
97       (163)    3           2.3155 (  0.9641) /_  117.1
------------
98       (219)    1           2.2654 (  0.9432) /_   -4.8
98       (220)    2           2.3887 (  0.9946) /_ -122.9
98       (221)    3           2.3151 (  0.9639) /_  117.0

ELEMENT = "Line.L97"
98       (219)    1           2.2654 (  0.9432) /_   -4.8
98       (220)    2           2.3887 (  0.9946) /_ -122.9
98       (221)    3           2.3151 (  0.9639) /_  117.0
------------
99       (222)    1            2.266 (  0.9435) /_   -4.8
99       (223)    2           2.3867 (  0.9937) /_ -122.9
99       (224)    3           2.3144 (  0.9636) /_  117.0

ELEMENT = "Line.L98"
99       (222)    1            2.266 (  0.9435) /_   -4.8
99       (223)    2           2.3867 (  0.9937) /_ -122.9
99       (224)    3           2.3144 (  0.9636) /_  117.0
------------
100      (225)    1           2.2664 (  0.9437) /_   -4.8
100      (226)    2           2.3865 (  0.9937) /_ -122.9
100      (227)    3           2.3135 (  0.9632) /_  117.0

ELEMENT = "Line.L99"
100      (225)    1           2.2664 (  0.9437) /_   -4.8
100      (226)    2           2.3865 (  0.9937) /_ -122.9
100      (227)    3           2.3135 (  0.9632) /_  117.0
------------
450      (228)    1           2.2664 (  0.9437) /_   -4.8
450      (229)    2           2.3865 (  0.9937) /_ -122.9
450      (230)    3           2.3135 (  0.9632) /_  117.0

ELEMENT = "Line.L118"
197      (231)    1            2.266 (  0.9434) /_   -4.8
197      (232)    2           2.3893 (  0.9948) /_ -122.9
197      (233)    3           2.3155 (  0.9641) /_  117.1
------------
101      (234)    1            2.264 (  0.9427) /_   -4.8
101      (235)    2           2.3886 (  0.9945) /_ -122.9
101      (236)    3           2.3141 (  0.9635) /_  117.0

ELEMENT = "Line.L100"
101      (236)    3           2.3141 (  0.9635) /_  117.0
------------
102      (237)    3           2.3104 (  0.9619) /_  117.0

ELEMENT = "Line.L101"
101      (234)    1            2.264 (  0.9427) /_   -4.8
101      (235)    2           2.3886 (  0.9945) /_ -122.9
101      (236)    3           2.3141 (  0.9635) /_  117.0
------------
105      (238)    1           2.2608 (  0.9413) /_   -4.9
105      (239)    2           2.3882 (  0.9943) /_ -123.0
105      (240)    3           2.3148 (  0.9638) /_  117.1

ELEMENT = "Line.L102"
102      (237)    3           2.3104 (  0.9619) /_  117.0
------------
103      (241)    3           2.3061 (  0.9602) /_  117.0

ELEMENT = "Line.L103"
103      (241)    3           2.3061 (  0.9602) /_  117.0
------------
104      (242)    3           2.3015 (  0.9582) /_  116.9

ELEMENT = "Line.L104"
105      (239)    2           2.3882 (  0.9943) /_ -123.0
------------
106      (243)    2           2.3853 (  0.9931) /_ -123.0

ELEMENT = "Line.L105"
105      (238)    1           2.2608 (  0.9413) /_   -4.9
105      (239)    2           2.3882 (  0.9943) /_ -123.0
105      (240)    3           2.3148 (  0.9638) /_  117.1
------------
108      (244)    1           2.2573 (  0.9398) /_   -4.9
108      (245)    2           2.3897 (   0.995) /_ -123.0
108      (246)    3           2.3145 (  0.9636) /_  117.1

ELEMENT = "Line.L106"
106      (243)    2           2.3853 (  0.9931) /_ -123.0
------------
107      (247)    2           2.3816 (  0.9916) /_ -123.0

ELEMENT = "Line.L107"
108      (244)    1           2.2573 (  0.9398) /_   -4.9
------------
109      (248)    1           2.2473 (  0.9357) /_   -5.0

ELEMENT = "Line.L108"
108      (244)    1           2.2573 (  0.9398) /_   -4.9
108      (245)    2           2.3897 (   0.995) /_ -123.0
108      (246)    3           2.3145 (  0.9636) /_  117.1
------------
300      (249)    1           2.2573 (  0.9398) /_   -4.9
300      (250)    2           2.3897 (   0.995) /_ -123.0
300      (251)    3           2.3145 (  0.9636) /_  117.1

ELEMENT = "Line.L109"
109      (248)    1           2.2473 (  0.9357) /_   -5.0
------------
110      (252)    1           2.2427 (  0.9338) /_   -5.1

ELEMENT = "Line.L110"
110      (252)    1           2.2427 (  0.9338) /_   -5.1
------------
111      (253)    1           2.2408 (   0.933) /_   -5.1

ELEMENT = "Line.L111"
110      (252)    1           2.2427 (  0.9338) /_   -5.1
------------
112      (254)    1           2.2411 (  0.9331) /_   -5.1

ELEMENT = "Line.L112"
112      (254)    1           2.2411 (  0.9331) /_   -5.1
------------
113      (255)    1           2.2363 (  0.9311) /_   -5.1

ELEMENT = "Line.L113"
113      (255)    1           2.2363 (  0.9311) /_   -5.1
------------
114      (256)    1           2.2353 (  0.9307) /_   -5.1

ELEMENT = "Line.L114"
135      (257)    1           2.3092 (  0.9615) /_   -2.4
135      (258)    2           2.4056 (   1.002) /_ -121.3
135      (259)    3           2.3452 (  0.9764) /_  118.9
------------
35       ( 74)    1           2.3016 (  0.9583) /_   -2.5
35       ( 75)    2           2.4006 (  0.9995) /_ -121.4
35       ( 78)    3           2.3424 (  0.9753) /_  118.9

ELEMENT = "Line.L116"
152      (260)    1           2.3329 (  0.9713) /_   -1.9
152      (261)    2            2.413 (   1.005) /_ -121.0
152      (262)    3           2.3635 (  0.9841) /_  119.0
------------
52       (113)    1           2.3174 (  0.9648) /_   -2.3
52       (114)    2           2.4106 (   1.004) /_ -121.3
52       (115)    3           2.3545 (  0.9803) /_  118.7

ELEMENT = "Line.L117"
160R     (263)    1           2.2749 (  0.9472) /_   -4.4
160R     (264)    2           2.3921 (   0.996) /_ -122.7
160R     (265)    3           2.3229 (  0.9671) /_  117.2
------------
67       (154)    1           2.2684 (  0.9445) /_   -4.7
67       (156)    2           2.3906 (  0.9953) /_ -122.9
67       (157)    3           2.3173 (  0.9648) /_  117.1

ELEMENT = "Line.SW1"
150R     (  4)    1           2.4258 (    1.01) /_    0.0
150R     (  5)    2           2.4258 (    1.01) /_ -120.0
150R     (  6)    3           2.4258 (    1.01) /_  120.0
------------
149      (  7)    1           2.4258 (    1.01) /_    0.0
149      (  8)    2           2.4258 (    1.01) /_ -120.0
149      (  9)    3           2.4258 (    1.01) /_  120.0

ELEMENT = "Line.SW2"
13       ( 26)    1           2.3329 (  0.9713) /_   -1.9
13       ( 27)    2            2.413 (   1.005) /_ -121.0
13       ( 28)    3           2.3635 (  0.9841) /_  119.0
------------
152      (260)    1           2.3329 (  0.9713) /_   -1.9
152      (261)    2            2.413 (   1.005) /_ -121.0
152      (262)    3           2.3635 (  0.9841) /_  119.0

ELEMENT = "Line.SW3"
18       ( 32)    1           2.3092 (  0.9615) /_   -2.4
18       ( 33)    2           2.4056 (   1.002) /_ -121.3
18       ( 34)    3           2.3452 (  0.9764) /_  118.9
------------
135      (257)    1           2.3092 (  0.9615) /_   -2.4
135      (258)    2           2.4056 (   1.002) /_ -121.3
135      (259)    3           2.3452 (  0.9764) /_  118.9

ELEMENT = "Line.SW4"
60       (132)    1           2.2801 (  0.9493) /_   -3.6
60       (133)    2           2.3907 (  0.9954) /_ -122.1
60       (134)    3           2.3233 (  0.9673) /_  117.9
------------
160      (266)    1           2.2801 (  0.9493) /_   -3.6
160      (267)    2           2.3907 (  0.9954) /_ -122.1
160      (268)    3           2.3233 (  0.9673) /_  117.9

ELEMENT = "Line.SW5"
97       (161)    1            2.266 (  0.9434) /_   -4.8
97       (162)    2           2.3893 (  0.9948) /_ -122.9
97       (163)    3           2.3155 (  0.9641) /_  117.1
------------
197      (231)    1            2.266 (  0.9434) /_   -4.8
197      (232)    2           2.3893 (  0.9948) /_ -122.9
197      (233)    3           2.3155 (  0.9641) /_  117.1

ELEMENT = "Line.SW6"
61       (136)    1           2.2801 (  0.9493) /_   -3.6
61       (137)    2           2.3907 (  0.9954) /_ -122.1
61       (138)    3           2.3233 (  0.9673) /_  117.9
------------
61S      (269)    1           2.2801 (  0.9493) /_   -3.6
61S      (270)    2           2.3907 (  0.9954) /_ -122.1
61S      (271)    3           2.3233 (  0.9673) /_  117.9

ELEMENT = "Transformer.XFM1A"
610      (272)    1                0 (       0) /_    0.0
610      (  0)    0                0 (       0) /_    0.0
------------
XFM1A_2  (273)    1                0 (       0) /_    0.0
XFM1A_2  (  0)    0                0 (       0) /_    0.0

ELEMENT = "Transformer.XFM1B"
610      (274)    2                0 (       0) /_    0.0
610      (  0)    0                0 (       0) /_    0.0
------------
XFM1B_2  (275)    1                0 (       0) /_    0.0
XFM1B_2  (  0)    0                0 (       0) /_    0.0

ELEMENT = "Transformer.XFM1C"
610      (276)    3                0 (       0) /_    0.0
610      (  0)    0                0 (       0) /_    0.0
------------
XFM1C_2  (277)    1                0 (       0) /_    0.0
XFM1C_2  (  0)    0                0 (       0) /_    0.0

ELEMENT = "Capacitor.C83"
83       (195)    1           2.2801 (  0.9494) /_   -5.1
83       (196)    2           2.4034 (   1.001) /_ -123.3
83       (197)    3           2.3253 (  0.9682) /_  116.6
------------
83       (  0)    0                0 (       0) /_    0.0
83       (  0)    0                0 (       0) /_    0.0
83       (  0)    0                0 (       0) /_    0.0

ELEMENT = "Capacitor.C88A"
88       (202)    1           2.2624 (   0.942) /_   -5.0
------------
88       (  0)    0                0 (       0) /_    0.0

ELEMENT = "Capacitor.C90B"
90       (206)    2            2.381 (  0.9913) /_ -123.5
------------
90       (  0)    0                0 (       0) /_    0.0

ELEMENT = "Capacitor.C92C"
92       (210)    3            2.323 (  0.9672) /_  116.8
------------
92       (  0)    0                0 (       0) /_    0.0

ELEMENT = "Transformer.REG2A"
9        ( 25)    1           2.3502 (  0.9785) /_   -1.5
9        (  0)    0                0 (       0) /_    0.0
------------
9R       ( 29)    1           2.3485 (  0.9778) /_   -1.6
9R       (  0)    0                0 (       0) /_    0.0

ELEMENT = "Transformer.REG3A"
25       ( 50)    1           2.3056 (  0.9599) /_   -2.6
25       (  0)    0                0 (       0) /_    0.0
------------
25R      ( 53)    1           2.3043 (  0.9594) /_   -2.6
25R      (  0)    0                0 (       0) /_    0.0

ELEMENT = "Transformer.REG4A"
160      (266)    1           2.2801 (  0.9493) /_   -3.6
160      (  0)    0                0 (       0) /_    0.0
------------
160R     (263)    1           2.2749 (  0.9472) /_   -4.4
160R     (  0)    0                0 (       0) /_    0.0

ELEMENT = "Transformer.REG3C"
25       ( 52)    3           2.3373 (  0.9732) /_  118.9
25       (  0)    0                0 (       0) /_    0.0
------------
25R      ( 54)    3           2.3361 (  0.9727) /_  118.8
25R      (  0)    0                0 (       0) /_    0.0

ELEMENT = "Transformer.REG4B"
160      (267)    2           2.3907 (  0.9954) /_ -122.1
160      (  0)    0                0 (       0) /_    0.0
------------
160R     (264)    2           2.3921 (   0.996) /_ -122.7
160R     (  0)    0                0 (       0) /_    0.0

ELEMENT = "Transformer.REG4C"
160      (268)    3           2.3233 (  0.9673) /_  117.9
160      (  0)    0                0 (       0) /_    0.0
------------
160R     (265)    3           2.3229 (  0.9671) /_  117.2
160R     (  0)    0                0 (       0) /_    0.0

= = = = = = = = = = = = = = = = = = =  = = = = = = = = = = =  = =

Power Conversion Elements

Bus     (node ref)  Phase    Magnitude, kV (pu)    Angle

ELEMENT = "Load.S1A"
1        ( 10)    1           2.3935 (  0.9965) /_   -0.7
1        (  0)    0                0 (       0) /_    0.0

ELEMENT = "Load.S2B"
2        ( 13)    2           2.4212 (   1.008) /_ -120.3
2        (  0)    0                0 (       0) /_    0.0

ELEMENT = "Load.S4C"
4        ( 18)    3           2.3977 (  0.9983) /_  119.6
4        (  0)    0                0 (       0) /_    0.0

ELEMENT = "Load.S5C"
5        ( 19)    3           2.3959 (  0.9976) /_  119.6
5        (  0)    0                0 (       0) /_    0.0

ELEMENT = "Load.S6C"
6        ( 20)    3           2.3944 (  0.9969) /_  119.6
6        (  0)    0                0 (       0) /_    0.0

ELEMENT = "Load.S7A"
7        ( 15)    1           2.3694 (  0.9865) /_   -1.2
7        (  0)    0                0 (       0) /_    0.0

ELEMENT = "Load.S9A"
9        ( 25)    1           2.3502 (  0.9785) /_   -1.5
9        (  0)    0                0 (       0) /_    0.0

ELEMENT = "Load.S10A"
10       ( 36)    1           2.3437 (  0.9758) /_   -1.6
10       (  0)    0                0 (       0) /_    0.0

ELEMENT = "Load.S11A"
11       ( 35)    1           2.3429 (  0.9755) /_   -1.6
11       (  0)    0                0 (       0) /_    0.0

ELEMENT = "Load.S12B"
12       ( 24)    2           2.4162 (   1.006) /_ -120.8
12       (  0)    0                0 (       0) /_    0.0

ELEMENT = "Load.S16C"
16       ( 38)    3           2.3578 (  0.9817) /_  118.9
16       (  0)    0                0 (       0) /_    0.0

ELEMENT = "Load.S17C"
17       ( 39)    3            2.359 (  0.9822) /_  118.9
17       (  0)    0                0 (       0) /_    0.0

ELEMENT = "Load.S19A"
19       ( 40)    1            2.306 (  0.9601) /_   -2.4
19       (  0)    0                0 (       0) /_    0.0

ELEMENT = "Load.S20A"
20       ( 44)    1           2.3039 (  0.9593) /_   -2.4
20       (  0)    0                0 (       0) /_    0.0

ELEMENT = "Load.S22B"
22       ( 45)    2           2.4024 (       1) /_ -121.3
22       (  0)    0                0 (       0) /_    0.0

ELEMENT = "Load.S24C"
24       ( 49)    3           2.3359 (  0.9726) /_  118.9
24       (  0)    0                0 (       0) /_    0.0

ELEMENT = "Load.S28A"
28       ( 57)    1           2.3047 (  0.9596) /_   -2.6
28       (  0)    0                0 (       0) /_    0.0

ELEMENT = "Load.S29A"
29       ( 64)    1           2.3044 (  0.9594) /_   -2.6
29       (  0)    0                0 (       0) /_    0.0

ELEMENT = "Load.S30C"
30       ( 69)    3           2.3343 (  0.9719) /_  118.9
30       (  0)    0                0 (       0) /_    0.0

ELEMENT = "Load.S31C"
31       ( 62)    3           2.3334 (  0.9715) /_  118.8
31       (  0)    0                0 (       0) /_    0.0

ELEMENT = "Load.S32C"
32       ( 73)    3           2.3324 (  0.9711) /_  118.8
32       (  0)    0                0 (       0) /_    0.0

ELEMENT = "Load.S33A"
33       ( 63)    1           2.2997 (  0.9575) /_   -2.7
33       (  0)    0                0 (       0) /_    0.0

ELEMENT = "Load.S34C"
34       ( 31)    3           2.3611 (  0.9831) /_  118.9
34       (  0)    0                0 (       0) /_    0.0

ELEMENT = "Load.S35A"
35       ( 74)    1           2.3016 (  0.9583) /_   -2.5
35       (  0)    0                0 (       0) /_    0.0

ELEMENT = "Load.S37A"
37       ( 82)    1           2.2976 (  0.9566) /_   -2.5
37       (  0)    0                0 (       0) /_    0.0

ELEMENT = "Load.S38B"
38       ( 83)    2           2.3978 (  0.9984) /_ -121.4
38       (  0)    0                0 (       0) /_    0.0

ELEMENT = "Load.S39B"
39       ( 84)    2           2.3968 (  0.9979) /_ -121.4
39       (  0)    0                0 (       0) /_    0.0

ELEMENT = "Load.S41C"
41       ( 85)    3           2.3389 (  0.9738) /_  118.8
41       (  0)    0                0 (       0) /_    0.0

ELEMENT = "Load.S42A"
42       ( 86)    1           2.2941 (  0.9552) /_   -2.6
42       (  0)    0                0 (       0) /_    0.0

ELEMENT = "Load.S43B"
43       ( 89)    2            2.392 (  0.9959) /_ -121.5
43       (  0)    0                0 (       0) /_    0.0

ELEMENT = "Load.S45A"
45       ( 93)    1           2.2901 (  0.9535) /_   -2.6
45       (  0)    0                0 (       0) /_    0.0

ELEMENT = "Load.S46A"
46       ( 97)    1           2.2891 (  0.9531) /_   -2.6
46       (  0)    0                0 (       0) /_    0.0

ELEMENT = "Load.S47A"
47       ( 94)    1            2.289 (   0.953) /_   -2.6
47       (  0)    0                0 (       0) /_    0.0

ELEMENT = "Load.S47B"
47       ( 95)    2           2.3909 (  0.9955) /_ -121.5
47       (  0)    0                0 (       0) /_    0.0

ELEMENT = "Load.S47C"
47       ( 96)    3           2.3334 (  0.9715) /_  118.7
47       (  0)    0                0 (       0) /_    0.0

ELEMENT = "Load.S48A"
48       ( 98)    1           2.2883 (  0.9528) /_   -2.6
48       (  0)    0                0 (       0) /_    0.0

ELEMENT = "Load.S48B"
48       ( 99)    2           2.3902 (  0.9952) /_ -121.5
48       (  0)    0                0 (       0) /_    0.0

ELEMENT = "Load.S48C"
48       (100)    3           2.3329 (  0.9713) /_  118.7
48       (  0)    0                0 (       0) /_    0.0

ELEMENT = "Load.S49A"
49       (101)    1           2.2883 (  0.9527) /_   -2.6
49       (  0)    0                0 (       0) /_    0.0

ELEMENT = "Load.S49B"
49       (102)    2           2.3895 (  0.9949) /_ -121.5
49       (  0)    0                0 (       0) /_    0.0

ELEMENT = "Load.S49C"
49       (103)    3           2.3326 (  0.9712) /_  118.7
49       (  0)    0                0 (       0) /_    0.0

ELEMENT = "Load.S50C"
50       (106)    3           2.3318 (  0.9709) /_  118.7
50       (  0)    0                0 (       0) /_    0.0

ELEMENT = "Load.S51A"
51       (107)    1           2.2878 (  0.9525) /_   -2.7
51       (  0)    0                0 (       0) /_    0.0

ELEMENT = "Load.S52A"
52       (113)    1           2.3174 (  0.9648) /_   -2.3
52       (  0)    0                0 (       0) /_    0.0

ELEMENT = "Load.S53A"
53       (116)    1           2.3102 (  0.9619) /_   -2.5
53       (  0)    0                0 (       0) /_    0.0

ELEMENT = "Load.S55A"
55       (122)    1           2.3057 (    0.96) /_   -2.6
55       (  0)    0                0 (       0) /_    0.0

ELEMENT = "Load.S56B"
56       (129)    2           2.4072 (   1.002) /_ -121.5
56       (  0)    0                0 (       0) /_    0.0

ELEMENT = "Load.S58B"
58       (131)    2              2.4 (  0.9993) /_ -121.7
58       (  0)    0                0 (       0) /_    0.0

ELEMENT = "Load.S59B"
59       (135)    2           2.3992 (  0.9989) /_ -121.7
59       (  0)    0                0 (       0) /_    0.0

ELEMENT = "Load.S60A"
60       (132)    1           2.2801 (  0.9493) /_   -3.6
60       (  0)    0                0 (       0) /_    0.0

ELEMENT = "Load.S62C"
62       (141)    3           2.3176 (  0.9649) /_  117.9
62       (  0)    0                0 (       0) /_    0.0

ELEMENT = "Load.S63A"
63       (142)    1           2.2778 (  0.9484) /_   -3.6
63       (  0)    0                0 (       0) /_    0.0

ELEMENT = "Load.S64B"
64       (146)    2           2.3822 (  0.9919) /_ -122.0
64       (  0)    0                0 (       0) /_    0.0

ELEMENT = "Load.S65A"
65       (148)    1           2.2775 (  0.9482) /_   -3.6
65       (  0)    0                0 (       0) /_    0.0

ELEMENT = "Load.S65B"
65       (149)    2           2.3819 (  0.9917) /_ -121.9
65       (  0)    0                0 (       0) /_    0.0

ELEMENT = "Load.S65C"
65       (150)    3           2.2994 (  0.9574) /_  117.9
65       (  0)    0                0 (       0) /_    0.0

ELEMENT = "Load.S66C"
66       (153)    3           2.2956 (  0.9558) /_  117.9
66       (  0)    0                0 (       0) /_    0.0

ELEMENT = "Load.S68A"
68       (155)    1           2.2645 (  0.9428) /_   -4.8
68       (  0)    0                0 (       0) /_    0.0

ELEMENT = "Load.S69A"
69       (164)    1           2.2599 (  0.9409) /_   -4.8
69       (  0)    0                0 (       0) /_    0.0

ELEMENT = "Load.S70A"
70       (165)    1           2.2567 (  0.9396) /_   -4.8
70       (  0)    0                0 (       0) /_    0.0

ELEMENT = "Load.S71A"
71       (166)    1           2.2549 (  0.9389) /_   -4.8
71       (  0)    0                0 (       0) /_    0.0

ELEMENT = "Load.S73C"
73       (167)    3           2.3111 (  0.9623) /_  116.9
73       (  0)    0                0 (       0) /_    0.0

ELEMENT = "Load.S74C"
74       (171)    3           2.3067 (  0.9604) /_  116.9
74       (  0)    0                0 (       0) /_    0.0

ELEMENT = "Load.S75C"
75       (172)    3           2.3041 (  0.9593) /_  116.9
75       (  0)    0                0 (       0) /_    0.0

ELEMENT = "Load.S76A"
76       (168)    1           2.2669 (  0.9438) /_   -4.9
76       (  0)    0                0 (       0) /_    0.0

ELEMENT = "Load.S76B"
76       (169)    2           2.3882 (  0.9944) /_ -123.1
76       (  0)    0                0 (       0) /_    0.0

ELEMENT = "Load.S76C"
76       (170)    3           2.3177 (   0.965) /_  116.9
76       (  0)    0                0 (       0) /_    0.0

ELEMENT = "Load.S77B"
77       (174)    2           2.3908 (  0.9954) /_ -123.2
77       (  0)    0                0 (       0) /_    0.0

ELEMENT = "Load.S79A"
79       (182)    1           2.2692 (  0.9448) /_   -5.0
79       (  0)    0                0 (       0) /_    0.0

ELEMENT = "Load.S80B"
80       (186)    2           2.3957 (  0.9975) /_ -123.3
80       (  0)    0                0 (       0) /_    0.0

ELEMENT = "Load.S82A"
82       (191)    1           2.2776 (  0.9483) /_   -5.1
82       (  0)    0                0 (       0) /_    0.0

ELEMENT = "Load.S83C"
83       (197)    3           2.3253 (  0.9682) /_  116.6
83       (  0)    0                0 (       0) /_    0.0

ELEMENT = "Load.S84C"
84       (194)    3           2.3151 (  0.9639) /_  116.6
84       (  0)    0                0 (       0) /_    0.0

ELEMENT = "Load.S85C"
85       (198)    3            2.312 (  0.9626) /_  116.6
85       (  0)    0                0 (       0) /_    0.0

ELEMENT = "Load.S86B"
86       (177)    2           2.3839 (  0.9925) /_ -123.3
86       (  0)    0                0 (       0) /_    0.0

ELEMENT = "Load.S87B"
87       (200)    2           2.3819 (  0.9917) /_ -123.4
87       (  0)    0                0 (       0) /_    0.0

ELEMENT = "Load.S88A"
88       (202)    1           2.2624 (   0.942) /_   -5.0
88       (  0)    0                0 (       0) /_    0.0

ELEMENT = "Load.S90B"
90       (206)    2            2.381 (  0.9913) /_ -123.5
90       (  0)    0                0 (       0) /_    0.0

ELEMENT = "Load.S92C"
92       (210)    3            2.323 (  0.9672) /_  116.8
92       (  0)    0                0 (       0) /_    0.0

ELEMENT = "Load.S94A"
94       (214)    1           2.2585 (  0.9404) /_   -5.0
94       (  0)    0                0 (       0) /_    0.0

ELEMENT = "Load.S95B"
95       (216)    2           2.3791 (  0.9906) /_ -123.5
95       (  0)    0                0 (       0) /_    0.0

ELEMENT = "Load.S96B"
96       (218)    2           2.3785 (  0.9903) /_ -123.5
96       (  0)    0                0 (       0) /_    0.0

ELEMENT = "Load.S98A"
98       (219)    1           2.2654 (  0.9432) /_   -4.8
98       (  0)    0                0 (       0) /_    0.0

ELEMENT = "Load.S99B"
99       (223)    2           2.3867 (  0.9937) /_ -122.9
99       (  0)    0                0 (       0) /_    0.0

ELEMENT = "Load.S100C"
100      (227)    3           2.3135 (  0.9632) /_  117.0
100      (  0)    0                0 (       0) /_    0.0

ELEMENT = "Load.S102C"
102      (237)    3           2.3104 (  0.9619) /_  117.0
102      (  0)    0                0 (       0) /_    0.0

ELEMENT = "Load.S103C"
103      (241)    3           2.3061 (  0.9602) /_  117.0
103      (  0)    0                0 (       0) /_    0.0

ELEMENT = "Load.S104C"
104      (242)    3           2.3015 (  0.9582) /_  116.9
104      (  0)    0                0 (       0) /_    0.0

ELEMENT = "Load.S106B"
106      (243)    2           2.3853 (  0.9931) /_ -123.0
106      (  0)    0                0 (       0) /_    0.0

ELEMENT = "Load.S107B"
107      (247)    2           2.3816 (  0.9916) /_ -123.0
107      (  0)    0                0 (       0) /_    0.0

ELEMENT = "Load.S109A"
109      (248)    1           2.2473 (  0.9357) /_   -5.0
109      (  0)    0                0 (       0) /_    0.0

ELEMENT = "Load.S111A"
111      (253)    1           2.2408 (   0.933) /_   -5.1
111      (  0)    0                0 (       0) /_    0.0

ELEMENT = "Load.S112A"
112      (254)    1           2.2411 (  0.9331) /_   -5.1
112      (  0)    0                0 (       0) /_    0.0

ELEMENT = "Load.S113A"
113      (255)    1           2.2363 (  0.9311) /_   -5.1
113      (  0)    0                0 (       0) /_    0.0

ELEMENT = "Load.S114A"
114      (256)    1           2.2353 (  0.9307) /_   -5.1
114      (  0)    0                0 (       0) /_    0.0

